<?xml version="1.0" encoding="UTF-8"?>

<!-- generated on mar. 24 mars 2020 06:50:18 CET by Netedit Version 0.32.0
<?xml version="1.0" encoding="UTF-8"?>

<configuration xmlns:xsi="http://www.w3.org/2001/XMLSchema-instance" xsi:noNamespaceSchemaLocation="http://sumo.dlr.de/xsd/netconvertConfiguration.xsd">

    <output>
        <output-file value="/home/adam/Bureau/centrale-reinforcement-learning/traffic/sumo_config/intersection.net.xml"/>
    </output>

    <processing>
        <no-turnarounds value="true"/>
        <offset.disable-normalization value="true"/>
    </processing>

</configuration>
-->

<net version="0.27" xmlns:xsi="http://www.w3.org/2001/XMLSchema-instance" xsi:noNamespaceSchemaLocation="http://sumo.dlr.de/xsd/net_file.xsd">

    <location netOffset="0.00,0.00" convBoundary="-750.00,-750.00,750.00,750.00" origBoundary="10000000000.00,10000000000.00,-10000000000.00,-10000000000.00" projParameter="!"/>

    <edge id=":gneJ7_0" function="internal">
        <lane id=":gneJ7_0_0" index="0" speed="13.89" length="5.00" shape="-11.55,14.65 -11.74,13.29 -12.33,12.32 -13.29,11.74 -14.65,11.55"/>
    </edge>
    <edge id=":gneJ7_1" function="internal">
        <lane id=":gneJ7_1_0" index="0" speed="13.89" length="29.36" shape="-11.55,14.65 -11.55,-14.65"/>
        <lane id=":gneJ7_1_1" index="1" speed="13.89" length="29.36" shape="-8.25,14.65 -8.25,-14.65"/>
        <lane id=":gneJ7_1_2" index="2" speed="13.89" length="29.36" shape="-4.95,14.65 -4.95,-14.65"/>
        <lane id=":gneJ7_1_3" index="3" speed="13.89" length="29.36" shape="-4.95,14.65 -4.43,5.93 -3.30,-0.00 -2.17,-5.93 -1.65,-14.65"/>
    </edge>
    <edge id=":gneJ7_5" function="internal">
        <lane id=":gneJ7_5_0" index="0" speed="13.89" length="9.67" shape="-1.65,14.65 -0.63,7.52 0.64,5.41"/>
    </edge>
    <edge id=":gneJ7_23" function="internal">
        <lane id=":gneJ7_23_0" index="0" speed="13.89" length="16.62" shape="0.64,5.41 2.43,2.42 7.52,-0.63 14.65,-1.65"/>
    </edge>
    <edge id=":gneJ7_6" function="internal">
        <lane id=":gneJ7_6_0" index="0" speed="13.89" length="5.00" shape="14.65,11.55 13.29,11.74 12.32,12.33 11.74,13.29 11.55,14.65"/>
    </edge>
    <edge id=":gneJ7_7" function="internal">
        <lane id=":gneJ7_7_0" index="0" speed="13.89" length="29.38" shape="14.65,8.25 -14.65,8.25"/>
        <lane id=":gneJ7_7_1" index="1" speed="13.89" length="29.38" shape="14.65,4.95 -14.65,4.95"/>
        <lane id=":gneJ7_7_2" index="2" speed="13.89" length="29.38" shape="14.65,4.95 5.93,4.43 -0.00,3.30 -5.93,2.17 -14.65,1.65"/>
    </edge>
    <edge id=":gneJ7_10" function="internal">
        <lane id=":gneJ7_10_0" index="0" speed="13.89" length="9.67" shape="14.65,1.65 7.52,0.63 5.41,-0.64"/>
    </edge>
    <edge id=":gneJ7_24" function="internal">
        <lane id=":gneJ7_24_0" index="0" speed="13.89" length="16.62" shape="5.41,-0.64 2.42,-2.43 -0.63,-7.52 -1.65,-14.65"/>
    </edge>
    <edge id=":gneJ7_11" function="internal">
        <lane id=":gneJ7_11_0" index="0" speed="13.89" length="5.00" shape="11.55,-14.65 11.74,-13.29 12.33,-12.32 13.29,-11.74 14.65,-11.55"/>
    </edge>
    <edge id=":gneJ7_12" function="internal">
        <lane id=":gneJ7_12_0" index="0" speed="13.89" length="29.36" shape="11.55,-14.65 11.55,14.65"/>
        <lane id=":gneJ7_12_1" index="1" speed="13.89" length="29.36" shape="8.25,-14.65 8.25,14.65"/>
        <lane id=":gneJ7_12_2" index="2" speed="13.89" length="29.36" shape="4.95,-14.65 4.95,14.65"/>
        <lane id=":gneJ7_12_3" index="3" speed="13.89" length="29.36" shape="4.95,-14.65 4.43,-5.93 3.30,0.00 2.17,5.93 1.65,14.65"/>
    </edge>
    <edge id=":gneJ7_16" function="internal">
        <lane id=":gneJ7_16_0" index="0" speed="13.89" length="9.67" shape="1.65,-14.65 0.63,-7.52 -0.64,-5.41"/>
    </edge>
    <edge id=":gneJ7_25" function="internal">
        <lane id=":gneJ7_25_0" index="0" speed="13.89" length="16.62" shape="-0.64,-5.41 -2.43,-2.42 -7.52,0.63 -14.65,1.65"/>
    </edge>
    <edge id=":gneJ7_17" function="internal">
        <lane id=":gneJ7_17_0" index="0" speed="13.89" length="5.00" shape="-14.65,-11.55 -13.29,-11.74 -12.32,-12.33 -11.74,-13.29 -11.55,-14.65"/>
    </edge>
    <edge id=":gneJ7_18" function="internal">
        <lane id=":gneJ7_18_0" index="0" speed="13.89" length="29.36" shape="-14.65,-11.55 14.65,-11.55"/>
        <lane id=":gneJ7_18_1" index="1" speed="13.89" length="29.36" shape="-14.65,-8.25 14.65,-8.25"/>
        <lane id=":gneJ7_18_2" index="2" speed="13.89" length="29.36" shape="-14.65,-4.95 14.65,-4.95"/>
        <lane id=":gneJ7_18_3" index="3" speed="13.89" length="29.36" shape="-14.65,-4.95 -5.93,-4.43 0.00,-3.30 5.93,-2.17 14.65,-1.65"/>
    </edge>
    <edge id=":gneJ7_22" function="internal">
        <lane id=":gneJ7_22_0" index="0" speed="13.89" length="9.67" shape="-14.65,-1.65 -7.52,-0.63 -5.41,0.64"/>
    </edge>
    <edge id=":gneJ7_26" function="internal">
        <lane id=":gneJ7_26_0" index="0" speed="13.89" length="16.62" shape="-5.41,0.64 -2.42,2.43 0.63,7.52 1.65,14.65"/>
    </edge>

    <edge id="-gneE6" from="gneJ8" to="gneJ7" priority="1">
        <lane id="-gneE6_0" index="0" speed="13.89" length="735.35" shape="750.00,11.55 14.65,11.55"/>
        <lane id="-gneE6_1" index="1" speed="13.89" length="735.35" shape="750.00,8.25 14.65,8.25"/>
        <lane id="-gneE6_2" index="2" speed="13.89" length="735.35" shape="750.00,4.95 14.65,4.95"/>
        <lane id="-gneE6_3" index="3" speed="13.89" length="735.35" shape="750.00,1.65 14.65,1.65"/>
    </edge>
    <edge id="-gneE7" from="gneJ9" to="gneJ7" priority="1">
        <lane id="-gneE7_0" index="0" speed="13.89" length="735.35" shape="-11.55,750.00 -11.55,14.65"/>
        <lane id="-gneE7_1" index="1" speed="13.89" length="735.35" shape="-8.25,750.00 -8.25,14.65"/>
        <lane id="-gneE7_2" index="2" speed="13.89" length="735.35" shape="-4.95,750.00 -4.95,14.65"/>
        <lane id="-gneE7_3" index="3" speed="13.89" length="735.35" shape="-1.65,750.00 -1.65,14.65"/>
    </edge>
    <edge id="-gneE8" from="gneJ10" to="gneJ7" priority="1">
        <lane id="-gneE8_0" index="0" speed="13.89" length="735.35" shape="-750.00,-11.55 -14.65,-11.55"/>
        <lane id="-gneE8_1" index="1" speed="13.89" length="735.35" shape="-750.00,-8.25 -14.65,-8.25"/>
        <lane id="-gneE8_2" index="2" speed="13.89" length="735.35" shape="-750.00,-4.95 -14.65,-4.95"/>
        <lane id="-gneE8_3" index="3" speed="13.89" length="735.35" shape="-750.00,-1.65 -14.65,-1.65"/>
    </edge>
    <edge id="-gneE9" from="gneJ11" to="gneJ7" priority="1">
        <lane id="-gneE9_0" index="0" speed="13.89" length="735.35" shape="11.55,-750.00 11.55,-14.65"/>
        <lane id="-gneE9_1" index="1" speed="13.89" length="735.35" shape="8.25,-750.00 8.25,-14.65"/>
        <lane id="-gneE9_2" index="2" speed="13.89" length="735.35" shape="4.95,-750.00 4.95,-14.65"/>
        <lane id="-gneE9_3" index="3" speed="13.89" length="735.35" shape="1.65,-750.00 1.65,-14.65"/>
    </edge>
    <edge id="gneE6" from="gneJ7" to="gneJ8" priority="1">
        <lane id="gneE6_0" index="0" speed="13.89" length="735.35" shape="14.65,-11.55 750.00,-11.55"/>
        <lane id="gneE6_1" index="1" speed="13.89" length="735.35" shape="14.65,-8.25 750.00,-8.25"/>
        <lane id="gneE6_2" index="2" speed="13.89" length="735.35" shape="14.65,-4.95 750.00,-4.95"/>
        <lane id="gneE6_3" index="3" speed="13.89" length="735.35" shape="14.65,-1.65 750.00,-1.65"/>
    </edge>
    <edge id="gneE7" from="gneJ7" to="gneJ9" priority="1">
        <lane id="gneE7_0" index="0" speed="13.89" length="735.35" shape="11.55,14.65 11.55,750.00"/>
        <lane id="gneE7_1" index="1" speed="13.89" length="735.35" shape="8.25,14.65 8.25,750.00"/>
        <lane id="gneE7_2" index="2" speed="13.89" length="735.35" shape="4.95,14.65 4.95,750.00"/>
        <lane id="gneE7_3" index="3" speed="13.89" length="735.35" shape="1.65,14.65 1.65,750.00"/>
    </edge>
    <edge id="gneE8" from="gneJ7" to="gneJ10" priority="1">
        <lane id="gneE8_0" index="0" speed="13.89" length="735.35" shape="-14.65,11.55 -750.00,11.55"/>
        <lane id="gneE8_1" index="1" speed="13.89" length="735.35" shape="-14.65,8.25 -750.00,8.25"/>
        <lane id="gneE8_2" index="2" speed="13.89" length="735.35" shape="-14.65,4.95 -750.00,4.95"/>
        <lane id="gneE8_3" index="3" speed="13.89" length="735.35" shape="-14.65,1.65 -750.00,1.65"/>
    </edge>
    <edge id="gneE9" from="gneJ7" to="gneJ11" priority="1">
        <lane id="gneE9_0" index="0" speed="13.89" length="735.35" shape="-11.55,-14.65 -11.55,-750.00"/>
        <lane id="gneE9_1" index="1" speed="13.89" length="735.35" shape="-8.25,-14.65 -8.25,-750.00"/>
        <lane id="gneE9_2" index="2" speed="13.89" length="735.35" shape="-4.95,-14.65 -4.95,-750.00"/>
        <lane id="gneE9_3" index="3" speed="13.89" length="735.35" shape="-1.65,-14.65 -1.65,-750.00"/>
    </edge>

    <tlLogic id="gneJ7" type="static" programID="0" offset="0">
        <phase duration="33" state="GGGGGgrrrrrGGGGGgrrrrrr"/>
        <phase duration="3" state="yyyyygrrrrryyyyygrrrrrr"/>
        <phase duration="6" state="rrrrrGrrrrrrrrrrGrrrrrr"/>
        <phase duration="3" state="rrrrryrrrrrrrrrryrrrrrr"/>
        <phase duration="33" state="rrrrrrGGGGgrrrrrrGGGGGg"/>
        <phase duration="3" state="rrrrrryyyygrrrrrryyyyyg"/>
        <phase duration="6" state="rrrrrrrrrrGrrrrrrrrrrrG"/>
        <phase duration="3" state="rrrrrrrrrryrrrrrrrrrrry"/>
    </tlLogic>

    <junction id="gneJ10" type="dead_end" x="-750.00" y="0.00" incLanes="gneE8_0 gneE8_1 gneE8_2 gneE8_3" intLanes="" shape="-750.00,-0.05 -750.00,13.15 -750.00,0.05"/>
    <junction id="gneJ11" type="dead_end" x="0.00" y="-750.00" incLanes="gneE9_0 gneE9_1 gneE9_2 gneE9_3" intLanes="" shape="0.05,-750.00 -13.15,-750.00 -0.05,-750.00"/>
    <junction id="gneJ7" type="traffic_light" x="0.00" y="0.00" incLanes="-gneE7_0 -gneE7_1 -gneE7_2 -gneE7_3 -gneE6_0 -gneE6_1 -gneE6_2 -gneE6_3 -gneE9_0 -gneE9_1 -gneE9_2 -gneE9_3 -gneE8_0 -gneE8_1 -gneE8_2 -gneE8_3" intLanes=":gneJ7_0_0 :gneJ7_1_0 :gneJ7_1_1 :gneJ7_1_2 :gneJ7_1_3 :gneJ7_23_0 :gneJ7_6_0 :gneJ7_7_0 :gneJ7_7_1 :gneJ7_7_2 :gneJ7_24_0 :gneJ7_11_0 :gneJ7_12_0 :gneJ7_12_1 :gneJ7_12_2 :gneJ7_12_3 :gneJ7_25_0 :gneJ7_17_0 :gneJ7_18_0 :gneJ7_18_1 :gneJ7_18_2 :gneJ7_18_3 :gneJ7_26_0" shape="-13.15,14.65 13.15,14.65 14.65,13.15 14.65,-13.15 13.15,-14.65 -13.15,-14.65 -14.65,-13.15 -14.65,13.15">
        <request index="0" response="00000000000000000000000" foes="00000010000001110000000" cont="0"/>
        <request index="1" response="00000000000000000000000" foes="11111110000011110000000" cont="0"/>
        <request index="2" response="00000000000000000000000" foes="11111110000011110000000" cont="0"/>
        <request index="3" response="00000000000000000000000" foes="11111110000011110000000" cont="0"/>
        <request index="4" response="00000000000000000000000" foes="11111110000011110000000" cont="0"/>
        <request index="5" response="00000001111100000000000" foes="11111001111111110000000" cont="1"/>
        <request index="6" response="00000001111000000000000" foes="10000001111000000000000" cont="0"/>
        <request index="7" response="00000011111000000111111" foes="10000011111000000111111" cont="0"/>
        <request index="8" response="00000011111000000111111" foes="10000011111000000111111" cont="0"/>
        <request index="9" response="00000011111000000111111" foes="10000011111000000111111" cont="0"/>
        <request index="10" response="01111111111000000111110" foes="01111111111000000111110" cont="1"/>
        <request index="11" response="00000000000000000000000" foes="01111000000000000100000" cont="0"/>
        <request index="12" response="00000000000000000000000" foes="11111000000011111100000" cont="0"/>
        <request index="13" response="00000000000000000000000" foes="11111000000011111100000" cont="0"/>
        <request index="14" response="00000000000000000000000" foes="11111000000011111100000" cont="0"/>
        <request index="15" response="00000000000000000000000" foes="11111000000011111100000" cont="0"/>
        <request index="16" response="00000000000000000011111" foes="11111000000011110011111" cont="1"/>
        <request index="17" response="00000000000000000011110" foes="00000000000010000011110" cont="0"/>
        <request index="18" response="00000011111100000111110" foes="00000011111110000111110" cont="0"/>
        <request index="19" response="00000011111100000111110" foes="00000011111110000111110" cont="0"/>
        <request index="20" response="00000011111100000111110" foes="00000011111110000111110" cont="0"/>
        <request index="21" response="00000011111100000111110" foes="00000011111110000111110" cont="0"/>
        <request index="22" response="00000011111001111111110" foes="00000011111001111111110" cont="1"/>
    </junction>
    <junction id="gneJ8" type="dead_end" x="750.00" y="0.00" incLanes="gneE6_0 gneE6_1 gneE6_2 gneE6_3" intLanes="" shape="750.00,0.05 750.00,-13.15 750.00,-0.05"/>
    <junction id="gneJ9" type="dead_end" x="0.00" y="750.00" incLanes="gneE7_0 gneE7_1 gneE7_2 gneE7_3" intLanes="" shape="-0.05,750.00 13.15,750.00 0.05,750.00"/>

    <junction id=":gneJ7_23_0" type="internal" x="0.64" y="5.41" incLanes=":gneJ7_5_0 -gneE9_0 -gneE9_1 -gneE9_2" intLanes=":gneJ7_7_0 :gneJ7_7_1 :gneJ7_7_2 :gneJ7_10_0 :gneJ7_11_0 :gneJ7_12_0 :gneJ7_12_1 :gneJ7_12_2 :gneJ7_12_3 :gneJ7_18_0 :gneJ7_18_1 :gneJ7_18_2 :gneJ7_18_3 :gneJ7_22_0"/>
    <junction id=":gneJ7_24_0" type="internal" x="5.41" y="-0.64" incLanes=":gneJ7_10_0 -gneE8_0 -gneE8_1 -gneE8_2" intLanes=":gneJ7_1_0 :gneJ7_1_1 :gneJ7_1_2 :gneJ7_1_3 :gneJ7_5_0 :gneJ7_12_0 :gneJ7_12_1 :gneJ7_12_2 :gneJ7_12_3 :gneJ7_16_0 :gneJ7_17_0 :gneJ7_18_0 :gneJ7_18_1 :gneJ7_18_2 :gneJ7_18_3"/>
    <junction id=":gneJ7_25_0" type="internal" x="-0.64" y="-5.41" incLanes=":gneJ7_16_0 -gneE7_0 -gneE7_1 -gneE7_2" intLanes=":gneJ7_0_0 :gneJ7_1_0 :gneJ7_1_1 :gneJ7_1_2 :gneJ7_1_3 :gneJ7_7_0 :gneJ7_7_1 :gneJ7_7_2 :gneJ7_10_0 :gneJ7_18_0 :gneJ7_18_1 :gneJ7_18_2 :gneJ7_18_3 :gneJ7_22_0"/>
    <junction id=":gneJ7_26_0" type="internal" x="-5.41" y="0.64" incLanes=":gneJ7_22_0 -gneE6_0 -gneE6_1 -gneE6_2" intLanes=":gneJ7_1_0 :gneJ7_1_1 :gneJ7_1_2 :gneJ7_1_3 :gneJ7_5_0 :gneJ7_6_0 :gneJ7_7_0 :gneJ7_7_1 :gneJ7_7_2 :gneJ7_12_0 :gneJ7_12_1 :gneJ7_12_2 :gneJ7_12_3 :gneJ7_16_0"/>

    <connection from="-gneE6" to="gneE7" fromLane="0" toLane="0" via=":gneJ7_6_0" tl="gneJ7" linkIndex="6" dir="r" state="o"/>
    <connection from="-gneE6" to="gneE8" fromLane="1" toLane="1" via=":gneJ7_7_0" tl="gneJ7" linkIndex="7" dir="s" state="o"/>
    <connection from="-gneE6" to="gneE8" fromLane="2" toLane="2" via=":gneJ7_7_1" tl="gneJ7" linkIndex="8" dir="s" state="o"/>
    <connection from="-gneE6" to="gneE8" fromLane="2" toLane="3" via=":gneJ7_7_2" tl="gneJ7" linkIndex="9" dir="s" state="o"/>
    <connection from="-gneE6" to="gneE9" fromLane="3" toLane="3" via=":gneJ7_10_0" tl="gneJ7" linkIndex="10" dir="l" state="o"/>
    <connection from="-gneE7" to="gneE8" fromLane="0" toLane="0" via=":gneJ7_0_0" tl="gneJ7" linkIndex="0" dir="r" state="o"/>
    <connection from="-gneE7" to="gneE9" fromLane="0" toLane="0" via=":gneJ7_1_0" tl="gneJ7" linkIndex="1" dir="s" state="o"/>
    <connection from="-gneE7" to="gneE9" fromLane="1" toLane="1" via=":gneJ7_1_1" tl="gneJ7" linkIndex="2" dir="s" state="o"/>
    <connection from="-gneE7" to="gneE9" fromLane="2" toLane="2" via=":gneJ7_1_2" tl="gneJ7" linkIndex="3" dir="s" state="o"/>
    <connection from="-gneE7" to="gneE9" fromLane="2" toLane="3" via=":gneJ7_1_3" tl="gneJ7" linkIndex="4" dir="s" state="o"/>
    <connection from="-gneE7" to="gneE6" fromLane="3" toLane="3" via=":gneJ7_5_0" tl="gneJ7" linkIndex="5" dir="l" state="o"/>
    <connection from="-gneE8" to="gneE9" fromLane="0" toLane="0" via=":gneJ7_17_0" tl="gneJ7" linkIndex="17" dir="r" state="o"/>
    <connection from="-gneE8" to="gneE6" fromLane="0" toLane="0" via=":gneJ7_18_0" tl="gneJ7" linkIndex="18" dir="s" state="o"/>
    <connection from="-gneE8" to="gneE6" fromLane="1" toLane="1" via=":gneJ7_18_1" tl="gneJ7" linkIndex="19" dir="s" state="o"/>
    <connection from="-gneE8" to="gneE6" fromLane="2" toLane="2" via=":gneJ7_18_2" tl="gneJ7" linkIndex="20" dir="s" state="o"/>
    <connection from="-gneE8" to="gneE6" fromLane="2" toLane="3" via=":gneJ7_18_3" tl="gneJ7" linkIndex="21" dir="s" state="o"/>
    <connection from="-gneE8" to="gneE7" fromLane="3" toLane="3" via=":gneJ7_22_0" tl="gneJ7" linkIndex="22" dir="l" state="o"/>
    <connection from="-gneE9" to="gneE6" fromLane="0" toLane="0" via=":gneJ7_11_0" tl="gneJ7" linkIndex="11" dir="r" state="o"/>
    <connection from="-gneE9" to="gneE7" fromLane="0" toLane="0" via=":gneJ7_12_0" tl="gneJ7" linkIndex="12" dir="s" state="o"/>
    <connection from="-gneE9" to="gneE7" fromLane="1" toLane="1" via=":gneJ7_12_1" tl="gneJ7" linkIndex="13" dir="s" state="o"/>
    <connection from="-gneE9" to="gneE7" fromLane="2" toLane="2" via=":gneJ7_12_2" tl="gneJ7" linkIndex="14" dir="s" state="o"/>
    <connection from="-gneE9" to="gneE7" fromLane="2" toLane="3" via=":gneJ7_12_3" tl="gneJ7" linkIndex="15" dir="s" state="o"/>
    <connection from="-gneE9" to="gneE8" fromLane="3" toLane="3" via=":gneJ7_16_0" tl="gneJ7" linkIndex="16" dir="l" state="o"/>

    <connection from=":gneJ7_0" to="gneE8" fromLane="0" toLane="0" dir="r" state="M"/>
    <connection from=":gneJ7_1" to="gneE9" fromLane="0" toLane="0" dir="s" state="M"/>
    <connection from=":gneJ7_1" to="gneE9" fromLane="1" toLane="1" dir="s" state="M"/>
    <connection from=":gneJ7_1" to="gneE9" fromLane="2" toLane="2" dir="s" state="M"/>
    <connection from=":gneJ7_1" to="gneE9" fromLane="3" toLane="3" dir="s" state="M"/>
    <connection from=":gneJ7_5" to="gneE6" fromLane="0" toLane="3" via=":gneJ7_23_0" dir="l" state="m"/>
    <connection from=":gneJ7_23" to="gneE6" fromLane="0" toLane="3" dir="l" state="M"/>
    <connection from=":gneJ7_6" to="gneE7" fromLane="0" toLane="0" dir="r" state="M"/>
    <connection from=":gneJ7_7" to="gneE8" fromLane="0" toLane="1" dir="s" state="M"/>
    <connection from=":gneJ7_7" to="gneE8" fromLane="1" toLane="2" dir="s" state="M"/>
    <connection from=":gneJ7_7" to="gneE8" fromLane="2" toLane="3" dir="s" state="M"/>
    <connection from=":gneJ7_10" to="gneE9" fromLane="0" toLane="3" via=":gneJ7_24_0" dir="l" state="m"/>
    <connection from=":gneJ7_24" to="gneE9" fromLane="0" toLane="3" dir="l" state="M"/>
    <connection from=":gneJ7_11" to="gneE6" fromLane="0" toLane="0" dir="r" state="M"/>
    <connection from=":gneJ7_12" to="gneE7" fromLane="0" toLane="0" dir="s" state="M"/>
    <connection from=":gneJ7_12" to="gneE7" fromLane="1" toLane="1" dir="s" state="M"/>
    <connection from=":gneJ7_12" to="gneE7" fromLane="2" toLane="2" dir="s" state="M"/>
    <connection from=":gneJ7_12" to="gneE7" fromLane="3" toLane="3" dir="s" state="M"/>
    <connection from=":gneJ7_16" to="gneE8" fromLane="0" toLane="3" via=":gneJ7_25_0" dir="l" state="m"/>
    <connection from=":gneJ7_25" to="gneE8" fromLane="0" toLane="3" dir="l" state="M"/>
    <connection from=":gneJ7_17" to="gneE9" fromLane="0" toLane="0" dir="r" state="M"/>
    <connection from=":gneJ7_18" to="gneE6" fromLane="0" toLane="0" dir="s" state="M"/>
    <connection from=":gneJ7_18" to="gneE6" fromLane="1" toLane="1" dir="s" state="M"/>
    <connection from=":gneJ7_18" to="gneE6" fromLane="2" toLane="2" dir="s" state="M"/>
    <connection from=":gneJ7_18" to="gneE6" fromLane="3" toLane="3" dir="s" state="M"/>
    <connection from=":gneJ7_22" to="gneE7" fromLane="0" toLane="3" via=":gneJ7_26_0" dir="l" state="m"/>
    <connection from=":gneJ7_26" to="gneE7" fromLane="0" toLane="3" dir="l" state="M"/>

</net>
