<?xml version="1.0" encoding="UTF-8"?>

<!-- generated on mar. 24 mars 2020 07:07:09 CET by Eclipse SUMO netedit Version 1.5.0
<configuration xmlns:xsi="http://www.w3.org/2001/XMLSchema-instance" xsi:noNamespaceSchemaLocation="http://sumo.dlr.de/xsd/netconvertConfiguration.xsd">

    <input>
        <sumo-net-file value="/home/adam/Bureau/centrale-reinforcement-learning/traffic/sumo_config/intersection.net.xml"/>
    </input>

    <output>
        <output-file value="/home/adam/Bureau/centrale-reinforcement-learning/traffic/sumo_config/intersection.net.xml"/>
    </output>

    <processing>
        <geometry.min-radius.fix.railways value="false"/>
        <geometry.max-grade.fix value="false"/>
        <offset.disable-normalization value="true"/>
        <lefthand value="false"/>
    </processing>

    <junctions>
        <no-turnarounds value="true"/>
        <junctions.corner-detail value="0"/>
        <junctions.limit-turn-speed value="-1"/>
        <rectangular-lane-cut value="false"/>
    </junctions>

    <pedestrian>
        <walkingareas value="false"/>
    </pedestrian>

    <netedit>
        <route-files value="/home/adam/Bureau/centrale-reinforcement-learning/traffic/sumo_config/intersection.rou.xml"/>
    </netedit>

    <report>
        <aggregate-warnings value="5"/>
    </report>

</configuration>
-->

<routes xmlns:xsi="http://www.w3.org/2001/XMLSchema-instance" xsi:noNamespaceSchemaLocation="http://sumo.dlr.de/xsd/routes_file.xsd">
    <route edges="-gneE8 gneE9" color="yellow" id="route_0"/>
    <route edges="-gneE8 gneE6" color="yellow" id="route_1"/>
    <route edges="-gneE8 gneE7" color="yellow" id="route_2"/>
    <vehicle id="vehicle_0" depart="0.00" color="13,10,243" route="route_0"/>
</routes>
